40692
  -OEChem-08282305113D

 42 44  0     1  0  0  0  0  0999 V2000
    0.1466    3.9096    0.2339 F   0  0  0  0  0  0  0  0  0  0  0  0
   -1.3325    3.4312   -1.2786 F   0  0  0  0  0  0  0  0  0  0  0  0
   -1.9273    3.5939    0.8067 F   0  0  0  0  0  0  0  0  0  0  0  0
   -4.8228   -1.8912   -0.6803 F   0  0  0  0  0  0  0  0  0  0  0  0
   -4.4788   -0.0338    0.3855 F   0  0  0  0  0  0  0  0  0  0  0  0
   -3.8618   -0.2229   -1.6911 F   0  0  0  0  0  0  0  0  0  0  0  0
    2.4329   -0.0203    2.4823 O   0  0  0  0  0  0  0  0  0  0  0  0
    2.9093   -0.6918   -1.1143 N   0  0  0  0  0  0  0  0  0  0  0  0
   -1.7180    0.8279   -0.0291 N   0  0  0  0  0  0  0  0  0  0  0  0
    3.2197   -0.1332    0.2078 C   0  0  2  0  0  0  0  0  0  0  0  0
    4.6016   -0.6003    0.6851 C   0  0  0  0  0  0  0  0  0  0  0  0
    2.1379   -0.5618    1.1977 C   0  0  2  0  0  0  0  0  0  0  0  0
    5.6848   -0.2502   -0.3316 C   0  0  0  0  0  0  0  0  0  0  0  0
    5.3052   -0.7633   -1.7163 C   0  0  0  0  0  0  0  0  0  0  0  0
    3.9050   -0.3013   -2.1127 C   0  0  0  0  0  0  0  0  0  0  0  0
    0.7654   -0.1069    0.7656 C   0  0  0  0  0  0  0  0  0  0  0  0
   -0.2728   -1.0124    0.5473 C   0  0  0  0  0  0  0  0  0  0  0  0
    0.5764    1.2508    0.5920 C   0  0  0  0  0  0  0  0  0  0  0  0
   -1.5206   -0.4927    0.1436 C   0  0  0  0  0  0  0  0  0  0  0  0
   -0.6792    1.6646    0.1955 C   0  0  0  0  0  0  0  0  0  0  0  0
   -0.1023   -2.3968    0.7180 C   0  0  0  0  0  0  0  0  0  0  0  0
   -2.5630   -1.3891   -0.0766 C   0  0  0  0  0  0  0  0  0  0  0  0
   -1.1619   -3.2702    0.4909 C   0  0  0  0  0  0  0  0  0  0  0  0
   -2.3936   -2.7654    0.0930 C   0  0  0  0  0  0  0  0  0  0  0  0
   -0.9408    3.1196   -0.0081 C   0  0  0  0  0  0  0  0  0  0  0  0
   -3.9093   -0.8939   -0.5061 C   0  0  0  0  0  0  0  0  0  0  0  0
    3.2589    0.9623    0.1404 H   0  0  0  0  0  0  0  0  0  0  0  0
    4.6001   -1.6863    0.8471 H   0  0  0  0  0  0  0  0  0  0  0  0
    4.8569   -0.1359    1.6447 H   0  0  0  0  0  0  0  0  0  0  0  0
    2.2259   -1.6384    1.3303 H   0  0  0  0  0  0  0  0  0  0  0  0
    6.6439   -0.6796   -0.0219 H   0  0  0  0  0  0  0  0  0  0  0  0
    5.8153    0.8383   -0.3674 H   0  0  0  0  0  0  0  0  0  0  0  0
    6.0350   -0.4120   -2.4543 H   0  0  0  0  0  0  0  0  0  0  0  0
    5.3459   -1.8600   -1.7227 H   0  0  0  0  0  0  0  0  0  0  0  0
    1.9948   -0.3704   -1.4286 H   0  0  0  0  0  0  0  0  0  0  0  0
    3.8893    0.7862   -2.2551 H   0  0  0  0  0  0  0  0  0  0  0  0
    3.6377   -0.7534   -3.0741 H   0  0  0  0  0  0  0  0  0  0  0  0
    1.3685    1.9677    0.7750 H   0  0  0  0  0  0  0  0  0  0  0  0
    1.6682   -0.1813    3.0613 H   0  0  0  0  0  0  0  0  0  0  0  0
    0.8256   -2.8628    1.0240 H   0  0  0  0  0  0  0  0  0  0  0  0
   -1.0271   -4.3395    0.6233 H   0  0  0  0  0  0  0  0  0  0  0  0
   -3.2106   -3.4603   -0.0803 H   0  0  0  0  0  0  0  0  0  0  0  0
  1 25  1  0  0  0  0
  2 25  1  0  0  0  0
  3 25  1  0  0  0  0
  4 26  1  0  0  0  0
  5 26  1  0  0  0  0
  6 26  1  0  0  0  0
  7 12  1  0  0  0  0
  7 39  1  0  0  0  0
  8 10  1  0  0  0  0
  8 15  1  0  0  0  0
  8 35  1  0  0  0  0
  9 19  1  0  0  0  0
  9 20  2  0  0  0  0
 10 11  1  0  0  0  0
 10 12  1  0  0  0  0
 10 27  1  0  0  0  0
 11 13  1  0  0  0  0
 11 28  1  0  0  0  0
 11 29  1  0  0  0  0
 12 16  1  0  0  0  0
 12 30  1  0  0  0  0
 13 14  1  0  0  0  0
 13 31  1  0  0  0  0
 13 32  1  0  0  0  0
 14 15  1  0  0  0  0
 14 33  1  0  0  0  0
 14 34  1  0  0  0  0
 15 36  1  0  0  0  0
 15 37  1  0  0  0  0
 16 17  1  0  0  0  0
 16 18  2  0  0  0  0
 17 19  2  0  0  0  0
 17 21  1  0  0  0  0
 18 20  1  0  0  0  0
 18 38  1  0  0  0  0
 19 22  1  0  0  0  0
 20 25  1  0  0  0  0
 21 23  2  0  0  0  0
 21 40  1  0  0  0  0
 22 24  2  0  0  0  0
 22 26  1  0  0  0  0
 23 24  1  0  0  0  0
 23 41  1  0  0  0  0
 24 42  1  0  0  0  0
M  END
> <PUBCHEM_COMPOUND_CID>
40692

> <PUBCHEM_CONFORMER_RMSD>
0.8

> <PUBCHEM_CONFORMER_DIVERSEORDER>
1
4
3
2

> <PUBCHEM_MMFF94_PARTIAL_CHARGES>
28
1 -0.34
10 0.27
12 0.42
15 0.27
16 -0.14
18 -0.15
19 0.31
2 -0.34
20 0.17
21 -0.15
22 -0.14
23 -0.15
24 -0.15
25 1.16
26 1.16
3 -0.34
35 0.36
38 0.15
39 0.4
4 -0.34
40 0.15
41 0.15
42 0.15
5 -0.34
6 -0.34
7 -0.68
8 -0.9
9 -0.62

> <PUBCHEM_EFFECTIVE_ROTOR_COUNT>
5.2

> <PUBCHEM_PHARMACOPHORE_FEATURES>
8
1 7 acceptor
1 7 donor
1 8 cation
1 8 donor
1 9 acceptor
6 17 19 21 22 23 24 rings
6 8 10 11 13 14 15 rings
6 9 16 17 18 19 20 rings

> <PUBCHEM_HEAVY_ATOM_COUNT>
26

> <PUBCHEM_ATOM_DEF_STEREO_COUNT>
2

> <PUBCHEM_ATOM_UDEF_STEREO_COUNT>
0

> <PUBCHEM_BOND_DEF_STEREO_COUNT>
0

> <PUBCHEM_BOND_UDEF_STEREO_COUNT>
0

> <PUBCHEM_ISOTOPIC_ATOM_COUNT>
0

> <PUBCHEM_COMPONENT_COUNT>
1

> <PUBCHEM_CACTVS_TAUTO_COUNT>
1

> <PUBCHEM_CONFORMER_ID>
00009EF400000001

> <PUBCHEM_MMFF94_ENERGY>
50.0437

> <PUBCHEM_FEATURE_SELFOVERLAP>
40.627

> <PUBCHEM_SHAPE_FINGERPRINT>
10759866 29 17531794745506359683
11578080 2 16738564352611249764
11582403 64 16116759526420551600
11640471 11 17531535261426556652
11833330 49 18408888455754828080
12035759 4 18113623378211929140
12173636 292 18121219771115477772
12236239 1 17530960294144449114
12553582 1 18409160030663097203
12788726 201 18335136458268594594
12954195 1 18269841917546069122
13140716 1 18264759034093965923
13149001 5 18118677962098405495
13540713 4 17684078459701775915
14022347 108 18336538412708443067
14251757 5 18334580152445054663
14790565 3 18337399253410320473
14910302 57 18201726098659064926
14955137 171 18264507233278593707
15475509 8 18272385148144412759
15961568 22 18265892652706645304
16752209 62 18335132055890166818
16945 1 18337094722964158451
17357779 13 18131063848752245454
1813 80 18272092741943164301
19319366 153 17603574257745176994
19591789 44 17836371449738485859
20600515 1 18196068135737998745
20642791 239 17749395930795479325
20871999 31 18341336600280071628
21033650 10 18193581994852287590
21285901 2 18131079220567156206
21641784 216 18113623339335853365
21756936 100 17025756648854240644
22620623 9 18129393617744235684
22907989 373 18115856413202949549
23402539 116 18413386531648015670
23557571 272 18272933804679100048
23558518 356 17900818245637847123
23559900 14 18340206405801370554
25147074 1 17896877656567758578
266924 1 17895186642001818402
266924 87 18265888064779045047
2748010 2 18121767594083124483
283562 15 18410853218334646723
3027735 51 18271251495342144126
3178227 256 18262253213425895379
350125 39 17977382729173916227
352729 6 17689414011125079113
4280585 95 18338793537406777750
59755656 520 17484261672811777656
7164475 11 18263923255181043378
7364860 26 17690559010672385129
81228 2 18413392020621443113
9709674 26 17833825350197609451

> <PUBCHEM_SHAPE_MULTIPOLES>
475.59
9.18
3.7
1.48
7.45
3.56
-0.17
-3.95
-4.01
-3.87
0.25
1.46
-0.07
0.1

> <PUBCHEM_SHAPE_SELFOVERLAP>
1036.794

> <PUBCHEM_SHAPE_VOLUME>
260

> <PUBCHEM_COORDINATE_TYPE>
2
5
10

$$$$
